LTspice 24.0.12 for Windows
Circuit: * C:\Users\ubai\OneDrive - UGM 365\UG-Electrical Engineering\SEMESTER 9\TKE215204 Power Electronics\Final Project\BuckConverter\OLbuckconverter.asc
Start Time: Fri Dec 13 22:49:58 2024
solver = Normal
Maximum thread count: 8
tnom = 27
temp = 27
method = modified trap
Direct Newton iteration for .op point succeeded.
Total elapsed time: 0.925 seconds.

